Circuit: * Z:\home\eze\Escritorio\eze_ub\python_ws\py_prog\pwl-ltspice\Draft1.asc

.OP point found by inspection.

Date: Mon Jun 10 14:00:15 2019
Total elapsed time: 0.058 seconds.

tnom = 27
temp = 27
method = modified trap
totiter = 1790
traniter = 1790
tranpoints = 896
accept = 896
rejected = 0
matrix size = 2
fillins = 0
solver = Normal
Matrix Compiler1: 36 bytes object code size  1.2/1.2/[1.1]
Matrix Compiler2: 96 bytes object code size  1.2/1.1/[1.2]

